test/data/three_phase/kersting_example_11_2_altered/result.csv
# result.csv run at 2000-01-01 00:00:00 EST on 14 powerflow objects (not all are nodes)
node_name,voltA_real,voltA_imag,voltB_real,voltB_imag,voltC_real,voltC_imag
R1-12-47-1_node_3,0.000000,0.000000,0.000000,0.000000,-3599.779000,6235.000000
R1-12-47-1_tn_556,-59.995197,103.916225,-59.995133,103.916072,0.000000,0.000000
R1-12-47-1_tn_5561,-59.995259,103.915333,-59.995029,103.913119,0.000000,0.000000
R1-12-47-1_tn_5562,-59.995277,103.915066,-59.994998,103.912233,0.000000,0.000000
R1-12-47-1_tm_556,-59.995296,103.914798,-59.994967,103.911347,0.000000,0.000000
R1-12-47-1_tn_1154,-59.995296,103.914798,-59.994967,103.911347,0.000000,0.000000
